Circuit: * C:\Users\rites\Documents\LTspiceXVII\KillSwitch3\KillSwitch2.asc

WARNING: Less than two connections to node PWR_ENABLED.  This node is used by A3.
Instance "m:u1:2": Length shorter than recommended for a level 3 MOSFET.
Instance "m:u1:1": Length shorter than recommended for a level 3 MOSFET.
Direct Newton iteration for .op point succeeded.

Date: Thu Jan 04 19:48:19 2018
Total elapsed time: 0.247 seconds.

tnom = 27
temp = 27
method = modified trap
totiter = 9781
traniter = 9751
tranpoints = 3404
accept = 2775
rejected = 629
matrix size = 21
fillins = 8
solver = Normal
Matrix Compiler1: 1.87 KB object code size  0.4/0.2/[0.1]
Matrix Compiler2: off  [0.1]/0.3/0.3

